gem5 Simulator System.  https://www.gem5.org
gem5 is copyrighted software; use the --copyright option for details.

gem5 version 23.1.0.0
gem5 compiled Jun  3 2024 19:16:39
gem5 started Jun  3 2024 20:13:20
gem5 executing on 908dcad321bf, pid 61920
command line: /pws-gem5/build/GCN3_X86/gem5.opt --debug-flags=IPT,PWSDebug /pws-gem5/configs/example/apu_se.py -n 3 -c /hip-benchmarks/rodinia_3.0/hip/maxdiv/maxdiv -o '4096 4 1024 16'

Num SQC =  1 Num scalar caches =  1 Num CU =  4
fatal: /hip-benchmarks/rodinia_3.0/hip/maxdiv/maxdiv not found in ['.']

Time elapsed: 0m0.370s